Circuit: * C:\Users\vsridh252\Documents\personal\coilgun\Simulation\Coilgun\Coilgun-1V00.asc

Limiting rise time of source v1 to 2.08167e-018
Limiting fall time of source v1 to 2.08167e-018
Direct Newton iteration for .op point succeeded.

Date: Fri Dec 31 13:40:41 2021
Total elapsed time: 0.158 seconds.

tnom = 27
temp = 27
method = modified trap
totiter = 20058
traniter = 20055
tranpoints = 10028
accept = 10026
rejected = 2
matrix size = 4
fillins = 0
solver = Normal
Matrix Compiler1: 82 bytes object code size  0.0/0.0/[0.0]
Matrix Compiler2:      18 opcodes  0.0/[0.0]/0.0

