Circuit: * C:\Users\vsridh252\Documents\Personal\coilgun\Simulation\Coilgun\Coilgun-1V01.asc

Limiting rise time of source v1 to 2.08167e-018
Limiting fall time of source v1 to 2.08167e-018
Direct Newton iteration for .op point succeeded.

Date: Sun Dec 12 22:03:28 2021
Total elapsed time: 0.298 seconds.

tnom = 27
temp = 27
method = modified trap
totiter = 20401
traniter = 20380
tranpoints = 10123
accept = 10095
rejected = 28
matrix size = 6
fillins = 0
solver = Normal
Matrix Compiler1:      11 opcodes  0.1/[0.0]/0.0
Matrix Compiler2: off  [0.0]/0.1/0.1

