Circuit: * C:\Users\vignu\Documents\LTspiceXVII\Coilgun\Coilgun-1V00.asc

Limiting rise time of source v1 to 2.08167e-018
Limiting fall time of source v1 to 2.08167e-018
Direct Newton iteration for .op point succeeded.

Date: Sun Dec 12 18:48:07 2021
Total elapsed time: 0.396 seconds.

tnom = 27
temp = 27
method = modified trap
totiter = 20058
traniter = 20055
tranpoints = 10028
accept = 10026
rejected = 2
matrix size = 4
fillins = 0
solver = Normal
Matrix Compiler1:       5 opcodes  0.1/[0.1]/0.1
Matrix Compiler2: off  [0.1]/0.1/0.1

