Circuit: * C:\Users\vsridh252\Documents\personal\coilgun\Simulation\Coilgun\Coilgun-1V03.asc

Limiting rise time of source v1 to 5.5e-005
Limiting fall time of source v1 to 5.5e-005
Direct Newton iteration for .op point succeeded.

Date: Fri Dec 31 13:43:12 2021
Total elapsed time: 0.293 seconds.

tnom = 27
temp = 27
method = modified trap
totiter = 20710
traniter = 20678
tranpoints = 10242
accept = 10184
rejected = 58
matrix size = 5
fillins = 0
solver = Normal
Matrix Compiler1:       8 opcodes  0.0/[0.0]/0.0
Matrix Compiler2: off  [0.0]/0.0/0.1

