Circuit: * C:\Users\vsridh252\Documents\Personal\coilgun\Simulation\Coilgun\Coilgun-1V03.asc

Limiting rise time of source v1 to 5.5e-005
Limiting fall time of source v1 to 5.5e-005
Direct Newton iteration for .op point succeeded.

Date: Sat Dec 18 23:08:36 2021
Total elapsed time: 0.117 seconds.

tnom = 27
temp = 27
method = modified trap
totiter = 20565
traniter = 20533
tranpoints = 10196
accept = 10157
rejected = 39
matrix size = 5
fillins = 0
solver = Normal
Matrix Compiler1:       8 opcodes  0.0/[0.0]/0.0
Matrix Compiler2: off  [0.0]/0.0/0.0

