Circuit: * D:\Coding\coilgun\Simulation\Coilgun\Coilgun-1V03.asc

Limiting rise time of source v1 to 5.5e-005
Limiting fall time of source v1 to 5.5e-005
Direct Newton iteration for .op point succeeded.

Date: Fri Dec 24 13:19:42 2021
Total elapsed time: 0.719 seconds.

tnom = 27
temp = 27
method = modified trap
totiter = 20565
traniter = 20533
tranpoints = 10196
accept = 10157
rejected = 39
matrix size = 5
fillins = 0
solver = Normal
Matrix Compiler1: 132 bytes object code size  0.2/0.2/[0.2]
Matrix Compiler2: 267 bytes object code size  0.2/0.3/[0.1]

