Circuit: * C:\Users\vsridh252\Documents\Personal\coilgun\Simulation\Coilgun\Coilgun-1V04-resonance.asc

Limiting rise time of source v1 to 2.08167e-018
Limiting fall time of source v1 to 2.08167e-018
Direct Newton iteration for .op point succeeded.

Date: Sun Dec 19 01:15:40 2021
Total elapsed time: 0.572 seconds.

tnom = 27
temp = 27
method = modified trap
totiter = 20058
traniter = 20055
tranpoints = 10028
accept = 10026
rejected = 2
matrix size = 4
fillins = 0
solver = Normal
Matrix Compiler1:       5 opcodes  0.0/[0.0]/0.0
Matrix Compiler2: 194 bytes object code size  0.0/0.0/[0.0]

