Circuit: * C:\Users\vsridh252\Documents\Personal\coilgun\Simulation\Coilgun\Coilgun-1V03.asc

Limiting rise time of source v1 to 5e-006
Limiting fall time of source v1 to 5e-006
Direct Newton iteration for .op point succeeded.

Date: Wed Dec 15 16:47:24 2021
Total elapsed time: 0.343 seconds.

tnom = 27
temp = 27
method = modified trap
totiter = 20542
traniter = 20510
tranpoints = 10167
accept = 10131
rejected = 36
matrix size = 5
fillins = 0
solver = Normal
Matrix Compiler1:       8 opcodes  0.0/[0.0]/0.0
Matrix Compiler2: off  [0.0]/0.0/0.1

