Circuit: * C:\Users\vsridh252\Documents\Personal\coilgun\Simulation\Coilgun\Coilgun-1V01.asc

Limiting rise time of source v1 to 2.08167e-018
Limiting fall time of source v1 to 2.08167e-018
Direct Newton iteration for .op point succeeded.

Date: Tue Dec 14 16:44:06 2021
Total elapsed time: 0.180 seconds.

tnom = 27
temp = 27
method = modified trap
totiter = 20406
traniter = 20385
tranpoints = 10135
accept = 10104
rejected = 31
matrix size = 6
fillins = 0
solver = Normal
Matrix Compiler1:       9 opcodes  0.0/[0.0]/0.0
Matrix Compiler2: off  [0.0]/0.1/0.1

