Circuit: * D:\Coding\coilgun\Simulation\Coilgun\Superconducting-coilgun-1V00.asc

.OP point found by inspection.

Date: Wed Dec 22 21:39:58 2021
Total elapsed time: 0.202 seconds.

tnom = 27
temp = 27
method = modified trap
totiter = 20034
traniter = 20034
tranpoints = 10018
accept = 10018
rejected = 0
matrix size = 1
fillins = 0
solver = Normal
Matrix Compiler1: off  0.0/0.0/[0.0]
Matrix Compiler2: off  [0.0]/0.1/0.0

