Circuit: * D:\Coding\coilgun\boost-converter\Boost-Converter-12V-450V-1V00.asc

Per .tran options, skipping operating point for transient analysis.

Date: Fri Dec 24 22:33:26 2021
Total elapsed time: 135.856 seconds.

tnom = 27
temp = 27
method = modified trap
totiter = 70298673
traniter = 70298673
tranpoints = 16044735
accept = 11001870
rejected = 5042865
matrix size = 9
fillins = 0
solver = Normal
Matrix Compiler1: 430 bytes object code size  0.2/0.2/[0.1]
Matrix Compiler2: 647 bytes object code size  0.1/0.2/[0.1]

