Circuit: * C:\Users\vsridh252\Documents\personal\coilgun\full-voltage-doubler\designs\fullwave-doubler-1V02-02.asc

.OP point found by inspection.

Date: Wed Jan 05 21:10:11 2022
Total elapsed time: 1.603 seconds.

tnom = 27
temp = 27
method = modified trap
totiter = 172725
traniter = 172725
tranpoints = 41185
accept = 29624
rejected = 11561
matrix size = 20
fillins = 11
solver = Normal
Matrix Compiler1: 2.32 KB object code size  0.3/0.2/[0.1]
Matrix Compiler2: 1.94 KB object code size  0.1/0.2/[0.1]

