Circuit: * C:\Users\vsridh252\Documents\personal\coilgun\full-voltage-doubler\fullwave-doubler-1V02.asc

.OP point found by inspection.

Date: Mon Jan 03 21:41:40 2022
Total elapsed time: 1.047 seconds.

tnom = 27
temp = 27
method = modified trap
totiter = 214145
traniter = 214145
tranpoints = 51529
accept = 37757
rejected = 13772
matrix size = 11
fillins = 5
solver = Normal
Matrix Compiler1: 882 bytes object code size  0.1/0.1/[0.1]
Matrix Compiler2: off  [0.1]/0.1/0.1

