Circuit: * C:\Users\vsridh252\Documents\personal\coilgun\full-voltage-doubler\fullwave-doubler-1V00.asc

.OP point found by inspection.

Date: Mon Jan 03 19:52:24 2022
Total elapsed time: 0.521 seconds.

tnom = 27
temp = 27
method = modified trap
totiter = 105722
traniter = 105722
tranpoints = 25872
accept = 20237
rejected = 5635
matrix size = 8
fillins = 3
solver = Normal
Matrix Compiler1: 492 bytes object code size  0.2/0.2/[0.1]
Matrix Compiler2: 622 bytes object code size  0.1/0.2/[0.1]

