Circuit: * D:\Coding\coilgun\full-voltage-doubler\Draft1.asc

.OP point found by inspection.

Date: Sun Dec 26 22:05:01 2021
Total elapsed time: 1.119 seconds.

tnom = 27
temp = 27
method = modified trap
totiter = 58122
traniter = 58122
tranpoints = 21407
accept = 16928
rejected = 4479
matrix size = 30
fillins = 15
solver = Normal
Matrix Compiler1: 1.64 KB object code size  0.5/0.3/[0.2]
Matrix Compiler2: 2.21 KB object code size  0.2/0.4/[0.2]

