Circuit: * D:\Coding\coilgun\full-voltage-doubler\fullwave-doubler-1V01.asc

.OP point found by inspection.

Date: Sun Dec 26 20:49:09 2021
Total elapsed time: 1.566 seconds.

tnom = 27
temp = 27
method = modified trap
totiter = 429886
traniter = 429886
tranpoints = 135978
accept = 103226
rejected = 32752
matrix size = 11
fillins = 1
solver = Normal
Matrix Compiler1: 588 bytes object code size  0.3/0.2/[0.2]
Matrix Compiler2: 827 bytes object code size  0.2/0.3/[0.2]

