Circuit: * C:\Users\vsridh252\Documents\personal\coilgun\full-voltage-doubler\fullwave-doubler-1V03.asc

Per .tran options, skipping operating point for transient analysis.

Date: Mon Dec 27 22:58:24 2021
Total elapsed time: 1.225 seconds.

tnom = 27
temp = 27
method = modified trap
totiter = 111499
traniter = 111499
tranpoints = 42506
accept = 33140
rejected = 9366
matrix size = 58
fillins = 43
solver = Normal
Matrix Compiler1: 3.81 KB object code size  0.7/0.3/[0.2]
Matrix Compiler2: 4.52 KB object code size  0.2/0.4/[0.1]

