Circuit: * D:\Coding\coilgun\full-voltage-doubler\fullwave-doubler.asc

.OP point found by inspection.

Date: Sat Dec 25 08:46:09 2021
Total elapsed time: 1.405 seconds.

tnom = 27
temp = 27
method = modified trap
totiter = 122552
traniter = 122552
tranpoints = 29505
accept = 21947
rejected = 7558
matrix size = 4
fillins = 1
solver = Normal
Matrix Compiler1: 212 bytes object code size  0.1/0.1/[0.1]
Matrix Compiler2: off  [0.1]/0.1/0.1

