Circuit: * D:\Coding\coilgun\full-voltage-doubler\fullwave-doubler-1V02.asc

.OP point found by inspection.

Date: Sun Dec 26 09:33:14 2021
Total elapsed time: 0.886 seconds.

tnom = 27
temp = 27
method = modified trap
totiter = 88036
traniter = 88036
tranpoints = 24622
accept = 19700
rejected = 4922
matrix size = 8
fillins = 0
solver = Normal
Matrix Compiler1: 380 bytes object code size  0.2/0.1/[0.1]
Matrix Compiler2: off  [0.1]/0.2/0.2

