Circuit: * C:\Users\vsridh252\Documents\personal\coilgun\full-voltage-doubler\fullwave-doubler-1V02-02.asc

.OP point found by inspection.

Date: Tue Jan 04 13:24:26 2022
Total elapsed time: 1.047 seconds.

tnom = 27
temp = 27
method = modified trap
totiter = 171301
traniter = 171301
tranpoints = 40635
accept = 29177
rejected = 11458
matrix size = 19
fillins = 10
solver = Normal
Matrix Compiler1: 2.05 KB object code size  0.3/0.2/[0.1]
Matrix Compiler2: 1.86 KB object code size  0.1/0.6/[0.1]

