Circuit: * D:\Coding\coilgun\full-voltage-doubler\fullwave-doubler.asc

.OP point found by inspection.

Date: Fri Dec 24 22:46:41 2021
Total elapsed time: 0.969 seconds.

tnom = 27
temp = 27
method = modified trap
totiter = 71787
traniter = 71787
tranpoints = 19984
accept = 15323
rejected = 4661
matrix size = 4
fillins = 1
solver = Normal
Matrix Compiler1: 212 bytes object code size  0.1/0.1/[0.1]
Matrix Compiler2: 296 bytes object code size  0.1/0.1/[0.1]

